LTspice 24.0.12 for Windows
Circuit: * C:\Users\maxir\Escritorio\CircuitosMicroelectronicos\Clases\EjercicioParaEntregar.asc
Start Time: Wed Sep 25 00:55:08 2024
Warning: Multiple definitions of model "2scr375p" Type: BJT
Warning: Multiple definitions of model "bc857b" Type: BJT
Warning: Multiple definitions of model "bc847c" Type: BJT
Warning: Multiple definitions of model "bc847b" Type: BJT
r5: both pins shorted together -- ignoring.
solver = Normal
Maximum thread count: 22
tnom = 27
temp = 27
method = modified trap
.OP point found by inspection.
Total elapsed time: 0.235 seconds.

