LTspice 24.0.12 for Windows
Circuit: * C:\Users\Maxi\Desktop\CIRCUITOS MICROELECTRONICOS\TL1\OPAMP\BODEOPAMP.asc
Start Time: Tue Sep  3 18:59:18 2024
solver = Normal
Maximum thread count: 28
tnom = 27
temp = 27
method = modified trap
Direct Newton iteration for .op point succeeded.
Total elapsed time: 0.039 seconds.

