LTspice 24.0.12 for Windows
Circuit: * C:\Users\Maxi\Desktop\CIRCUITOS MICROELECTRONICOS\TL1\OPAMP\OPAMP.asc
Start Time: Sun Sep  8 19:42:53 2024
solver = Normal
Maximum thread count: 28
tnom = 27
temp = 27
method = modified trap
Direct Newton iteration for .op point succeeded.
Total elapsed time: 0.061 seconds.

