LTspice 24.0.12 for Windows
Circuit: * C:\Users\Maxi\Desktop\CIRCUITOS MICROELECTRONICOS\TL3\Draft1.asc
Start Time: Thu Nov  7 17:39:43 2024
Warning: Multiple definitions of model "2scr375p" Type: BJT
Warning: Multiple definitions of model "bc857b" Type: BJT
Warning: Multiple definitions of model "bc847c" Type: BJT
Warning: Multiple definitions of model "bc847b" Type: BJT
solver = Normal
Maximum thread count: 28
tnom = 27
temp = 27
method = modified trap
Direct Newton iteration for .op point succeeded.
Total elapsed time: 0.032 seconds.

