LTspice 24.0.12 for Windows
Circuit: * C:\Users\Maxi\Desktop\CIRCUITOS MICROELECTRONICOS\TL3\Ganancia_AV_Macromodelo.asc
Start Time: Tue Dec  3 12:38:52 2024
c4: both pins shorted together -- ignoring.
solver = Normal
Maximum thread count: 28
tnom = 27
temp = 27
method = modified trap
WARNING: Node N002 is floating.

WARNING: Less than two connections to node n002.  This node is used by c7.
Direct Newton iteration failed to find .op point.  (Use ".option noopiter" to skip.)
Starting Gmin stepping
Gmin = 10
Gmin = 1.07374
Gmin = 0.115292
Gmin = 0.0123794
Gmin = 0.00132923
Gmin = 0.000142725
Gmin = 1.5325e-05
Gmin = 1.6455e-06
Gmin = 1.76685e-07
Gmin = 1.89714e-08
Gmin = 2.03704e-09
Gmin = 2.18725e-10
Gmin = 2.34854e-11
Gmin = 2.52173e-12
Gmin = 2.70769e-13
Gmin = 0
Gmin stepping succeeded in finding the operating point.

N-Period=5.00
Fourier components of V(n002)
DC component:-0.0101313

Harmonic	Frequency	 Fourier 	Normalized	 Phase  	Normalized
 Number 	  [Hz]   	Component	 Component	[degree]	Phase [deg]
    1   	 1.000e+5	 6.434e-1	 1.000e+0	  -90.27°	    0.00°
    2   	 2.000e+5	 1.586e-2	 2.465e-2	   -0.98°	   89.30°
    3   	 3.000e+5	 2.975e-4	 4.624e-4	  -86.54°	    3.74°
Partial Harmonic Distortion: 2.464935%
Total Harmonic Distortion:   2.469177%


Total elapsed time: 0.028 seconds.

