LTspice 24.0.12 for Windows
Circuit: * C:\Users\Maxi\Desktop\CIRCUITOS MICROELECTRONICOS\Clases\2009practica.asc
Start Time: Wed Sep 25 01:20:10 2024
solver = Normal
Maximum thread count: 28
tnom = 27
temp = 27
method = modified trap
.OP point found by inspection.
Total elapsed time: 0.026 seconds.

