LTspice 24.0.12 for Windows
Circuit: * C:\Users\maxir\Escritorio\CircuitosMicroelectronicos\Clases\DiseñoCircuitoTL2MPS.asc
Start Time: Wed Sep 25 17:53:28 2024
solver = Normal
Maximum thread count: 22
tnom = 27
temp = 27
method = modified trap
.OP point found by inspection.
Total elapsed time: 0.121 seconds.

