Circuit: * C:\Users\Maxi\Desktop\CIRCUITOS MICROELECTRONICOS\TL2\DiseñoDeCircuito\DiseñoCircuitoTL2MPS.asc

Direct Newton iteration for .op point succeeded.

Date: Tue Oct 15 14:12:17 2024
Total elapsed time: 0.053 seconds.

tnom = 27
temp = 27
method = modified trap
totiter = 2085
traniter = 2082
tranpoints = 1042
accept = 1042
rejected = 0
matrix size = 10
fillins = 0
solver = Normal
Matrix Compiler1: 310 bytes object code size  0.1/0.0/[0.0]
Matrix Compiler2:      56 opcodes  0.1/[0.0]/0.1

