LTspice 24.0.12 for Windows
Circuit: * C:\Users\maxir\Escritorio\CircuitosMicroelectronicos\TL2\DiseñoDeCircuito\DiseñoCircuitoTL2MPS.asc
Start Time: Fri Sep 27 17:42:59 2024
solver = Normal
Maximum thread count: 22
tnom = 27
temp = 27
method = modified trap
.OP point found by inspection.
Total elapsed time: 0.135 seconds.

