Circuit: * C:\Users\Maxi\Desktop\CIRCUITOS MICROELECTRONICOS\TL2\DiseñoDeCircuito\Draft1.asc

Direct Newton iteration for .op point succeeded.

Date: Thu Oct 31 20:14:32 2024
Total elapsed time: 0.032 seconds.

tnom = 27
temp = 27
method = modified trap
totiter = 2097
traniter = 2082
tranpoints = 1042
accept = 1042
rejected = 0
matrix size = 17
fillins = 4
solver = Normal
Matrix Compiler1: 1.09 KB object code size  0.2/0.1/[0.1]
Matrix Compiler2: off  [0.1]/0.1/0.1

