LTspice 24.0.12 for Windows
Circuit: * C:\Users\Maxi\Desktop\CIRCUITOS MICROELECTRONICOS\TL1\RECTIFICADOR\RECTIFICADOR_de_ONDA_con_C.asc
Start Time: Sun Sep  8 20:08:31 2024
solver = Normal
Maximum thread count: 28
tnom = 27
temp = 27
method = modified trap
.OP point found by inspection.
Total elapsed time: 0.022 seconds.

