Circuit: * C:\Users\Maxi\Desktop\CIRCUITOS MICROELECTRONICOS\TL2\Correciones\DiseñoCircuitoTL2MPS.asc

Direct Newton iteration for .op point succeeded.

Date: Wed Oct 16 01:26:05 2024
Total elapsed time: 0.027 seconds.

tnom = 27
temp = 27
method = modified trap
totiter = 2088
traniter = 2082
tranpoints = 1042
accept = 1042
rejected = 0
matrix size = 11
fillins = 0
solver = Normal
Matrix Compiler1: 440 bytes object code size  0.1/0.1/[0.0]
Matrix Compiler2: off  [0.0]/0.1/0.0

