Circuit: * C:\Users\Maxi\Desktop\CIRCUITOS MICROELECTRONICOS\TL2\Correciones\DiseñoCircuitoTL2MPS.asc

Direct Newton iteration for .op point succeeded.

Date: Tue Oct 15 14:28:42 2024
Total elapsed time: 0.027 seconds.

tnom = 27
temp = 27
method = modified trap
totiter = 2088
traniter = 2082
tranpoints = 1042
accept = 1042
rejected = 0
matrix size = 12
fillins = 0
solver = Normal
Matrix Compiler1: 570 bytes object code size  0.1/0.1/[0.0]
Matrix Compiler2: 866 bytes object code size  0.1/0.1/[0.0]

