LTspice 24.0.12 for Windows
Circuit: * C:\Users\maxir\Escritorio\CircuitosMicroelectronicos\TL2\Correciones\DiseñoCircuitoTL2MPS.asc
Start Time: Tue Oct 15 23:27:42 2024
Warning: Multiple definitions of model "2scr375p" Type: BJT
Warning: Multiple definitions of model "bc857b" Type: BJT
Warning: Multiple definitions of model "bc847c" Type: BJT
Warning: Multiple definitions of model "bc847b" Type: BJT
solver = Normal
Maximum thread count: 22
tnom = 27
temp = 27
method = modified trap
Direct Newton iteration for .op point succeeded.
Total elapsed time: 0.206 seconds.

